OPT_V10/Two_days_first_run/powerflow_results_t32.txt
Pandapower Network Debug Info
==================================================

BUS:
       vm_pu  va_degree      p_mw    q_mvar
0   0.994229   0.106786  0.000899  0.000968
1   0.990681   0.174638  0.001110  0.001658
2   0.987453   0.237084  0.001620  0.002441
3   0.991208   0.172963  0.001961  0.003234
4   0.990436   0.250639  0.002385  0.004788
5   0.991919   0.204500  0.002945  0.006529
6   0.990150   0.218653  0.001116  0.001149
7   0.997667   0.039840  0.001477  0.002120
8   0.997959   0.044078  0.002124  0.002961
9   0.999825   0.000820  0.011511  0.009033
10  0.999831   0.000819  0.009854  0.009104
11  0.999849   0.000777  0.013364  0.012597
12  0.999782   0.002244  0.010447  0.006819
13  0.999757   0.002491  0.010332  0.009982
14  0.999766   0.002437  0.011066  0.012008
15  0.999930   0.000488  0.000000  0.000000
16  0.999930   0.000493  0.000000  0.000000
17  0.999787   0.002271  0.000000  0.000000
18  0.999787   0.002281  0.000000  0.000000
19  1.000000   0.000000 -0.040426 -0.044103
20  1.000000   0.000006  0.000000  0.000000
21  1.000000   0.000000 -0.042039 -0.051454
22  1.000000   0.000007  0.000000  0.000000
--------------------------------------------------

LINE:
    p_from_mw  q_from_mvar   p_to_mw  q_to_mvar         pl_mw       ql_mvar  i_from_ka   i_to_ka      i_ka  vm_from_pu  va_from_degree  vm_to_pu  va_to_degree  loading_percent
0    0.040416     0.040103 -0.040412  -0.040101  3.170792e-06  2.472318e-06   0.002191  0.002191  0.002191    1.000000        0.000006  0.999930      0.000488         0.952807
1    0.042029     0.047454 -0.042018  -0.047446  1.080876e-05  8.427767e-06   0.002440  0.002440  0.002440    1.000000        0.000007  0.999787      0.002271         1.060823
2    0.034732     0.030737 -0.034729  -0.030734  2.975970e-06  2.320413e-06   0.001785  0.001785  0.001785    0.999930        0.000488  0.999849      0.000777         0.776208
3    0.010447     0.006819 -0.010447  -0.006819  5.384190e-08  4.198141e-08   0.000480  0.000480  0.000480    0.999787        0.002271  0.999782      0.002244         0.208811
4    0.021398     0.021990 -0.021398  -0.021990  5.150069e-07  4.015594e-07   0.001181  0.001181  0.001181    0.999787        0.002271  0.999766      0.002437         0.513588
5    0.005670     0.008364 -0.005622  -0.008327  4.776593e-05  3.724388e-05   0.014586  0.014586  0.014586    0.999930        0.000493  0.994229      0.106786         6.341871
6    0.004123     0.007726 -0.004063  -0.007680  5.952558e-05  4.641307e-05   0.012643  0.012643  0.012643    0.999787        0.002281  0.991919      0.204500         5.496973
7    0.001482     0.002123 -0.001477  -0.002120  4.531080e-06  3.532958e-06   0.003738  0.003738  0.003738    0.999787        0.002281  0.997667      0.039840         1.625194
8    0.004558     0.007788 -0.004544  -0.007777  1.400610e-05  1.092079e-05   0.013027  0.013027  0.013027    0.999787        0.002281  0.997959      0.044078         5.664021
9    0.011511     0.009033 -0.011511  -0.009033  7.406653e-08  5.775089e-08   0.000563  0.000563  0.000563    0.999831        0.000819  0.999825      0.000820         0.244909
10   0.021365     0.018138 -0.021365  -0.018137  3.842508e-07  2.996066e-07   0.001079  0.001079  0.001079    0.999849        0.000777  0.999831      0.000819         0.469076
11   0.010332     0.009982 -0.010332  -0.009982  1.009880e-07  7.874204e-08   0.000553  0.000553  0.000553    0.999766        0.002437  0.999757      0.002491         0.240476
12  -0.002738    -0.004106  0.002752   0.004118  1.468090e-05  1.144694e-05   0.007190  0.007190  0.007190    0.990681        0.174638  0.994229      0.106786         3.126113
13  -0.001961    -0.003234  0.001971   0.003242  9.721149e-06  7.579740e-06   0.005507  0.005507  0.005507    0.991208        0.172963  0.994229      0.106786         2.394554
14  -0.001620    -0.002441  0.001628   0.002448  7.963641e-06  6.209382e-06   0.004283  0.004283  0.004283    0.987453        0.237084  0.990681      0.174638         1.862004
15   0.002421     0.004816 -0.002385  -0.004788  3.549524e-05  2.767622e-05   0.007796  0.007796  0.007796    0.997959        0.044078  0.990436      0.250639         3.389497
16  -0.001116    -0.001149  0.001119   0.001151  2.279322e-06  1.777225e-06   0.002335  0.002335  0.002335    0.990150        0.218653  0.991919      0.204500         1.015406
--------------------------------------------------

TRAFO:
    p_hv_mw  q_hv_mvar   p_lv_mw  q_lv_mvar    pl_mw  ql_mvar   i_hv_ka   i_lv_ka  vm_hv_pu  va_hv_degree  vm_lv_pu  va_lv_degree  loading_percent
0  0.005680   0.009364 -0.005670  -0.008364  0.00001    0.001  0.000422  0.014586  0.999930      0.000488  0.999930      0.000493         0.109529
1  0.010173   0.018637 -0.010163  -0.017637  0.00001    0.001  0.000817  0.029387  0.999787      0.002271  0.999787      0.002281         0.212369
2  0.040426   0.044103 -0.040416  -0.040103  0.00001    0.004  0.000493  0.002191  1.000000      0.000000  1.000000      0.000006         0.149568
3  0.042039   0.051454 -0.042029  -0.047454  0.00001    0.004  0.000548  0.002440  1.000000      0.000000  1.000000      0.000007         0.166110
--------------------------------------------------
